LAMMPS (11 Aug 2017)
dimension       3
boundary        p p p
units           metal

atom_style	atomic
neighbor	0.3 bin
neigh_modify	every 10 delay 0 check no

# Number of steps for the equilibration steps
variable        eqsteps equal 100000

# target temperature
variable	T equal 600.0

# Some high temperature to melt the crystal
variable	Tmelt equal 2000.0

#System size
variable	nx equal 6
variable	ny equal 6
variable	nz equal 6
variable	a equal 4.05

lattice		fcc 4.05
Lattice spacing in x,y,z = 4.05 4.05 4.05

region         box block 0 6 0 6 0 6
create_box     1 box
Created orthogonal box = (0 0 0) to (24.3 24.3 24.3)
create_atoms   1 box
Created 864 atoms

mass		1 26.9815

pair_style	eam/alloy
pair_coeff	* * my_al_potential.alloy Al

variable	T2 equal 2*600
velocity	all create 1200 1337

# Create a dump file. This can be visualized with
# e.g. OVITO (http://www.ovito.org/)
dump		id all atom 1000 atomsdump

# 1 fs timestep
timestep	0.001
thermo_style	custom step temp etotal pe press pxx pyy pzz lx ly lz

# output every 100th timestep
thermo		100

# Equilibration the whole system to the target temperature
fix		1 all npt temp 600 600 1 iso 0 0 3 drag 1.0
run		100000
  update every 10 steps, delay 0 steps, check no
Step Temp TotEng PotEng Press Pxx Pyy Pzz Lx Ly Lz
0         1200   -2801.2814   -2935.1432    5900.7949    5644.9049    5770.9587    6286.5212         24.3         24.3         24.3
Averages over the last 501 of 1001 rows, steps 50000 to 100000:
Temp TotEng PotEng Press Pxx Pyy Pzz Lx Ly Lz
599.961 -2796.47 -2863.4 -8.39334 13.324 11.5817 -50.0857 24.551 24.551 24.551
Loop time of 67.9107 on 20 procs for 100000 steps with 864 atoms
